TCC/Teste_1/Master_SST.dss
// Por padrão os elementos VSource.FonteSST_Carga e Load.CargaSST_Carga estão desativados (simulação usa TR)
// Para alterar entre TR e SST trocar os valores de @usa_tr e @usa_sst

Clear

var @VL = (0.22 3 sqrt *)
var @var_linecode = 2CA_3

/* ------------------------------------------------------------------------------------------------------- */
/*  Subestacao
/* ------------------------------------------------------------------------------------------------------- */
New Circuit.Fonte basekv=115 pu=1 phases=3 bus1=Barra1 MVAsc3=21e3 MVAsc1=20e3

New Transformer.Subestacao phases=3 windings=2   xhl=1e-12 sub=y
~ wdg=1 bus=Barra1  conn=delta  kV=115    kVA=1000   %r=0.0005
~ wdg=2 bus=Barra2  conn=delta  kV=13.8   kVA=1000   %r=0.0005
/* ------------------------------------------------------------------------------------------------------- */
/*  LineCodes e LoadShapes
/* ------------------------------------------------------------------------------------------------------- */
Redirect Biblioteca/LineCodes2.dss
Redirect Biblioteca/LoadShapes.dss
/* ------------------------------------------------------------------------------------------------------- */
/*  Linhas
/* ------------------------------------------------------------------------------------------------------- */
New Line.Linha1 phases=3 bus1=Barra2 bus2=Barra3 length=50 units=km linecode=@var_linecode
New Line.Linha2 phases=3 bus1=Barra3 bus2=Barra4 length=50 units=km linecode=@var_linecode

/* ------------------------------------------------------------------------------------------------------- */
/*  Transformadores
/* ------------------------------------------------------------------------------------------------------- */
New Transformer.TR  phases=3    windings=2  xhl=1e-6   Enabled=Yes
~ wdg=1 bus=Barra4  conn=delta  kV=13.8     kVA=150     %r=5e-2
~ wdg=2 bus=Barra5  conn=wye    kV="@VL"    kVA=150     %r=5e-2

/* ------------------------------------------------------------------------------------------------------- */
/*  Cargas
/* ------------------------------------------------------------------------------------------------------- */
//New Load.Carga1  Bus1=Barra3 Phases=3 Conn=Wye  Model=1  kV=13.8  kva=100 PF=1   Enabled=No
//New Load.Carga   Bus1=Barra5 Phases=3 Conn=Wye  Model=1  kV="@VL" kw=150 kvar=43 daily=Residencial
New Load.Carga   Bus1=Barra5 Phases=3 Conn=Wye  Model=1  kV="@VL" kva=150 PF=0.9 daily=Residencial

/* ------------------------------------------------------------------------------------------------------- */
/*  SST
/* ------------------------------------------------------------------------------------------------------- */
New VSource.FonteSST_Carga  Bus1=Barra5  Phases=3 basekv="@VL" Enabled=No
New Load.CargaSST_Carga     Bus1=Barra4  Phases=3 Conn=Delta Model=1 kV=13.8  kw=150 kvar=0 daily=Residencial Enabled=No

New Monitor.Potencia_FonteSST element=VSource.FonteSST_Carga  terminal=1 mode=1  ppolar=no Enabled=No
New Monitor.Potencia_CargaSST element=Load.CargaSST_Carga     terminal=1 mode=1  ppolar=no


/* ------------------------------------------------------------------------------------------------------- */
/*  PVSystem
/* ------------------------------------------------------------------------------------------------------- */
New XYCurve.MyPvsT    npts=4  xarray=[0 25 75 100]  yarray=[1.2 1.0 0.8  0.6]
New XYCurve.MyEff     npts=4  xarray=[.1 .2 .4 1.0] yarray=[.86 .9 .93 .97]
New Loadshape.MyIrrad npts=1440 minterval=1 mult=(file=Biblioteca/Irradiacao_1440.csv)
New Tshape.MyTemp     npts=1440 minterval=1 temp=(file=Biblioteca/Temperatura_1440.csv)
// New Loadshape.MyIrrad npts=1440 interval=1 mult=(file=Irradiacao_1440.csv)
// New Tshape.MyTemp     npts=1440 interval=1 temp=(file=Temperatura_1440.csv)

New PVSystem.FV phases=3 bus1=Barra5 kV="@VL" kVA=40 PF=1 Pmpp=40 Enabled=No
~ irrad=0.9 temperature=25 %cutin=0.1 %cutout=0.1 vminpu=0.8 vmaxpu=1.2
~ effcurve=Myeff
~ P-TCurve=MyPvsT
~ Daily=MyIrrad
~ TDaily=MyTemp !default for inverter is unity PF

New Monitor.FV_Power  element=PVSystem.FV  terminal=1 mode=1 ppolar=no
New Monitor.FV        element=PVSystem.FV  terminal=1 mode=3

/* ------------------------------------------------------------------------------------------------------- */
/*  Medidores e Monitores
/* ------------------------------------------------------------------------------------------------------- */
Redirect Medidores/EnergyMeters.dss
Redirect Medidores/Monitores.dss

Set emergvminpu = 0.7
Set emergvmaxpu = 1.2
Set normvminpu = 0.8
Set normvmaxpu = 1.1

// Set VoltageBases = [115, 13.8, "@VL"]
// CalcVoltageBases

/* ------------------------------------------------------------------------------------------------------- */
/*  Solve
/* ------------------------------------------------------------------------------------------------------- */
// var @usa_sst = Yes
// var @usa_tr  = No
//
// PVSystem.FV.Enabled            = No
// VSource.FonteSST_Carga.Enabled = @usa_sst
// Load.CargaSST_Carga.Enabled    = @usa_sst
// Transformer.TR.Enabled         = @usa_tr
//
// // Configura a potência reativa do SST
// Load.CargaSST_Carga.kvar = -60

// Destaquei a simulação às 19h pois é o horário que deu maior variação de P
// Set ControlMode=OFF
// Set Mode=Daily StepSize=0h hour=19 number=1
// Solve

//Plot monitor object= potencia_subestacao


//Plot monitor object= tensao_subestacao channels=(1 3 5 ) bases = ("115000 3 sqrt /" "115000 3 sqrt /" "115000 3 sqrt /")
//Plot monitor object= Tensao_Carga      channels=(1 3 5 ) bases=(220 220 220)
//Plot monitor object= Potencia_Carga    channels=(1 3 5 )
//Plot monitor object= Potencia_CargaSST    channels=(1 3 5 )
//Plot loadshape object = Residencial_Minuto

// Plot monitor object= FV_Power

//Plot LoadShape object = MyIrrad

// Show Powers kva Elements
//Show Voltage LN Nodes
//Show Voltage LN Elements

// Summary
